/*--------------------------------*- C++ -*----------------------------------*\
| =========                 |                                                 |
| \\      /  F ield         | OpenFOAM: The Open Source CFD Toolbox           |
|  \\    /   O peration     | Version:  3.0.1                                 |
|   \\  /    A nd           | Web:      www.OpenFOAM.org                      |
|    \\/     M anipulation  |                                                 |
\*---------------------------------------------------------------------------*/
FoamFile
{
    version     2.0;
    format      ascii;
    class       dictionary;
    object      blockMeshDict;
}
// * * * * * * * * * * * * * * * * * * * * * * * * * * * * * * * * * * * * * //

convertToMeters 1;

vertices
(
    (0 0 0)
    (100 0 0)
    (100 100 0)
    (0 100 0)
    (0 0 20)
    (100 0 20)
    (100 100 20)
    (0 100 20)
);

blocks
(
    hex (0 1 2 3 4 5 6 7) (200 200 40) simpleGrading (1 1 1)
);

edges
(
);

boundary
(
    stationaryWalls
    {
        type wall;
        faces
        (
            (0 3 2 1)
            (2 6 5 1)
            (1 5 4 0)
            (3 7 6 2)
            (0 4 7 3)
        );
    }
    atmosphere
    {
        type patch;
        faces
        (
            (4 5 6 7)
        );
    }
    floatingObject
    {
        type wall;
        faces ();
    }
);

mergePatchPairs
(
);

// ************************************************************************* //
