/*--------------------------------*- C++ -*----------------------------------*\
| =========                 |                                                 |
| \\      /  F ield         | OpenFOAM: The Open Source CFD Toolbox           |
|  \\    /   O peration     | Version:  3.0.1                                 |
|   \\  /    A nd           | Web:      www.OpenFOAM.org                      |
|    \\/     M anipulation  |                                                 |
\*---------------------------------------------------------------------------*/
FoamFile
{
    version     2.0;
    format      ascii;
    class       polyBoundaryMesh;
    location    "constant/polyMesh";
    object      boundary;
}
// * * * * * * * * * * * * * * * * * * * * * * * * * * * * * * * * * * * * * //

3
(
    stationaryWalls
    {
        type            wall;
        inGroups        1(wall);
        nFaces          3200;
        startFace       45932;
    }
    atmosphere
    {
        type            patch;
        nFaces          800;
        startFace       49132;
    }
    floatingObject
    {
        type            wall;
        inGroups        1(wall);
        nFaces          40;
        startFace       49932;
    }
)

// ************************************************************************* //
